Version 4
SHEET 1 1348 756
WIRE -528 -224 -560 -224
WIRE -416 -224 -448 -224
WIRE 224 -224 -416 -224
WIRE 1216 -224 224 -224
WIRE -560 -160 -560 -224
WIRE 224 -128 224 -224
WIRE 1216 -32 1216 -224
WIRE 336 64 144 64
WIRE 672 64 624 64
WIRE 880 64 736 64
WIRE 224 128 224 -48
WIRE 144 144 144 64
WIRE 192 144 144 144
WIRE 336 160 336 64
WIRE 336 160 256 160
WIRE 432 160 336 160
WIRE 496 160 432 160
WIRE 624 160 624 64
WIRE 624 160 576 160
WIRE 656 160 624 160
WIRE 752 160 736 160
WIRE 784 160 752 160
WIRE 880 160 880 64
WIRE 880 160 864 160
WIRE 928 160 880 160
WIRE 1056 160 1008 160
WIRE 1296 160 1056 160
WIRE -224 176 -288 176
WIRE -112 176 -144 176
WIRE 48 176 -48 176
WIRE 192 176 48 176
WIRE 752 224 752 160
WIRE -288 240 -288 176
WIRE 48 240 48 176
WIRE 1296 256 1296 160
WIRE 1216 304 1216 48
WIRE 752 320 752 304
WIRE 1184 320 752 320
WIRE 1296 336 1296 256
WIRE 1296 336 1248 336
WIRE 752 352 752 320
WIRE 1184 352 1136 352
WIRE -64 464 -272 464
WIRE -416 496 -416 -224
WIRE -192 496 -416 496
WIRE 432 496 432 160
WIRE 480 496 432 496
WIRE 656 496 560 496
WIRE 752 496 752 416
WIRE 752 496 736 496
WIRE 784 496 752 496
WIRE 928 496 864 496
WIRE 1056 496 1056 160
WIRE 1056 496 1008 496
WIRE -416 528 -416 496
WIRE -192 560 -192 496
WIRE -272 576 -272 464
WIRE -224 576 -272 576
WIRE -64 592 -64 464
WIRE -64 592 -160 592
WIRE 48 592 48 320
WIRE 48 592 -64 592
WIRE 1136 592 1136 352
WIRE 1136 592 48 592
WIRE -224 608 -352 608
WIRE -416 624 -416 608
WIRE -352 624 -352 608
WIRE -352 624 -416 624
WIRE -416 656 -416 624
FLAG 224 192 0
FLAG -560 -80 0
FLAG -288 320 0
FLAG 1216 368 0
FLAG -192 624 0
FLAG -416 736 0
FLAG 1296 256 Vout
FLAG -288 176 Vin
SYMBOL Opamps\\LTC6241 224 160 R0
SYMATTR InstName U1
SYMBOL voltage -560 -176 R0
WINDOW 123 0 0 Left 2
WINDOW 39 0 0 Left 2
SYMATTR InstName V1
SYMATTR Value 9
SYMBOL voltage -288 224 R0
WINDOW 123 24 124 Left 2
WINDOW 39 0 0 Left 2
SYMATTR InstName V2
SYMATTR Value SINE(0 1 1000)
SYMATTR Value2 AC 1
SYMBOL res -128 160 R90
WINDOW 0 0 56 VBottom 2
WINDOW 3 32 56 VTop 2
SYMATTR InstName R1
SYMATTR Value 1000K
SYMBOL cap -48 160 R90
WINDOW 0 0 32 VBottom 2
WINDOW 3 32 32 VTop 2
SYMATTR InstName C1
SYMATTR Value 1n
SYMBOL res 32 224 R0
SYMATTR InstName R3
SYMATTR Value 10000K
SYMBOL res 592 144 R90
WINDOW 0 0 56 VBottom 2
WINDOW 3 32 56 VTop 2
SYMATTR InstName R4
SYMATTR Value 22k
SYMBOL res 752 144 R90
WINDOW 0 0 56 VBottom 2
WINDOW 3 32 56 VTop 2
SYMATTR InstName R5
SYMATTR Value 50k
SYMBOL res 880 144 R90
WINDOW 0 0 56 VBottom 2
WINDOW 3 32 56 VTop 2
SYMATTR InstName R6
SYMATTR Value 50k
SYMBOL res 576 480 R90
WINDOW 0 0 56 VBottom 2
WINDOW 3 32 56 VTop 2
SYMATTR InstName R7
SYMATTR Value 10k
SYMBOL res 752 480 R90
WINDOW 0 0 56 VBottom 2
WINDOW 3 32 56 VTop 2
SYMATTR InstName R8
SYMATTR Value 50k
SYMBOL res 880 480 R90
WINDOW 0 0 56 VBottom 2
WINDOW 3 32 56 VTop 2
SYMATTR InstName R9
SYMATTR Value 50k
SYMBOL res 768 320 R180
WINDOW 0 36 76 Left 2
WINDOW 3 36 40 Left 2
SYMATTR InstName R10
SYMATTR Value 22k
SYMBOL cap 736 352 R0
SYMATTR InstName C2
SYMATTR Value 560p
SYMBOL cap 736 48 R90
WINDOW 0 0 32 VBottom 2
WINDOW 3 32 32 VTop 2
SYMATTR InstName C3
SYMATTR Value 47n
SYMBOL Opamps\\LTC6241 1216 336 R0
SYMATTR InstName U2
SYMBOL res 1024 144 R90
WINDOW 0 0 56 VBottom 2
WINDOW 3 32 56 VTop 2
SYMATTR InstName R11
SYMATTR Value 22k
SYMBOL res 1024 480 R90
WINDOW 0 0 56 VBottom 2
WINDOW 3 32 56 VTop 2
SYMATTR InstName R12
SYMATTR Value 10k
SYMBOL Opamps\\LTC6241 -192 592 R0
SYMATTR InstName U3
SYMBOL res -432 512 R0
SYMATTR InstName R13
SYMATTR Value 100K
SYMBOL res -432 640 R0
SYMATTR InstName R14
SYMATTR Value 100K
SYMBOL res -432 -240 R90
WINDOW 0 0 56 VBottom 2
WINDOW 3 32 56 VTop 2
SYMATTR InstName R2
SYMATTR Value 0.1
SYMBOL res 208 -144 R0
SYMATTR InstName R15
SYMATTR Value 0.1
SYMBOL res 1200 -48 R0
SYMATTR InstName R16
SYMATTR Value 0.1
TEXT -272 16 Left 2 !.tran 0.1
TEXT -264 64 Left 2 !;ac oct 100 1 100000
