Version 4
SHEET 1 1736 920
WIRE 992 -976 -288 -976
WIRE 512 -944 304 -944
WIRE 304 -928 304 -944
WIRE 272 -880 128 -880
WIRE 992 -864 992 -896
WIRE 560 -848 416 -848
WIRE 128 -816 128 -880
WIRE 128 -816 -144 -816
WIRE 272 -816 224 -816
WIRE 560 -800 560 -848
WIRE 592 -800 560 -800
WIRE 736 -800 656 -800
WIRE -144 -768 -144 -816
WIRE 992 -752 992 -800
WIRE 128 -720 128 -816
WIRE 736 -704 736 -800
WIRE 768 -704 736 -704
WIRE 880 -704 848 -704
WIRE 928 -704 880 -704
WIRE 512 -688 512 -944
WIRE 512 -688 304 -688
WIRE 304 -672 304 -688
WIRE 880 -640 880 -704
WIRE 224 -624 224 -816
WIRE 272 -624 224 -624
WIRE 592 -592 416 -592
WIRE 736 -592 736 -704
WIRE 736 -592 656 -592
WIRE 128 -560 128 -640
WIRE 272 -560 128 -560
WIRE 736 -544 736 -592
WIRE 992 -544 992 -656
WIRE 128 -512 128 -560
WIRE 224 -448 224 -624
WIRE 272 -448 224 -448
WIRE 320 -448 272 -448
WIRE 736 -448 736 -480
WIRE 272 -400 272 -448
WIRE -528 -224 -560 -224
WIRE -416 -224 -448 -224
WIRE -288 -224 -288 -976
WIRE -288 -224 -416 -224
WIRE 224 -224 -288 -224
WIRE 512 -224 512 -688
WIRE 512 -224 224 -224
WIRE 1216 -224 512 -224
WIRE -560 -160 -560 -224
WIRE 224 -128 224 -224
WIRE 1216 -32 1216 -224
WIRE 272 64 272 -320
WIRE 272 64 192 64
WIRE 304 64 272 64
WIRE 672 64 624 64
WIRE 880 64 736 64
WIRE 224 128 224 -48
WIRE 112 144 112 64
WIRE 192 144 112 144
WIRE 304 160 304 64
WIRE 304 160 256 160
WIRE 320 160 304 160
WIRE 496 160 464 160
WIRE 624 160 624 64
WIRE 624 160 576 160
WIRE 656 160 624 160
WIRE 752 160 736 160
WIRE 784 160 752 160
WIRE 880 160 880 64
WIRE 880 160 864 160
WIRE 928 160 880 160
WIRE 1056 160 1008 160
WIRE 1344 160 1056 160
WIRE -224 176 -288 176
WIRE -112 176 -144 176
WIRE 48 176 -48 176
WIRE 192 176 48 176
WIRE 752 224 752 160
WIRE -288 240 -288 176
WIRE 48 240 48 176
WIRE 1216 272 1216 48
WIRE 1344 272 1344 160
WIRE 752 320 752 304
WIRE 1184 320 752 320
WIRE 112 336 112 144
WIRE 752 352 752 320
WIRE 1344 352 1344 272
WIRE 1344 352 1328 352
WIRE 1184 384 1136 384
WIRE -416 416 -416 -224
WIRE -192 416 -416 416
WIRE -32 464 -288 464
WIRE 464 496 464 160
WIRE 480 496 464 496
WIRE 656 496 560 496
WIRE 752 496 752 416
WIRE 752 496 736 496
WIRE 784 496 752 496
WIRE 928 496 864 496
WIRE 1056 496 1056 160
WIRE 1056 496 1008 496
WIRE -192 512 -192 416
WIRE -416 528 -416 416
WIRE -288 560 -288 464
WIRE -224 560 -288 560
WIRE -32 592 -32 464
WIRE -32 592 -80 592
WIRE 48 592 48 320
WIRE 48 592 -32 592
WIRE 1136 592 1136 384
WIRE 1136 592 48 592
WIRE -416 624 -416 608
WIRE -224 624 -416 624
WIRE -416 656 -416 624
FLAG 224 192 0
FLAG -560 -80 0
FLAG -288 320 0
FLAG -416 736 0
FLAG -288 176 Vin
FLAG 128 -432 0
FLAG 736 -448 0
FLAG -144 -688 0
FLAG 400 -448 0
FLAG 992 -544 0
FLAG 880 -560 0
FLAG 112 416 0
FLAG 304 -768 0
FLAG 304 -512 0
FLAG -192 672 0
FLAG 1216 432 0
FLAG 1344 272 Vout
SYMBOL Opamps\\LTC6241 224 160 R0
SYMATTR InstName U1
SYMBOL voltage -560 -176 R0
WINDOW 123 0 0 Left 2
WINDOW 39 0 0 Left 2
SYMATTR InstName V1
SYMATTR Value 9
SYMBOL res -128 160 R90
WINDOW 0 0 56 VBottom 2
WINDOW 3 32 56 VTop 2
SYMATTR InstName R1
SYMATTR Value 1000K
SYMBOL cap -48 160 R90
WINDOW 0 0 32 VBottom 2
WINDOW 3 32 32 VTop 2
SYMATTR InstName C1
SYMATTR Value 1n
SYMBOL res 32 224 R0
SYMATTR InstName R3
SYMATTR Value 10000K
SYMBOL res 592 144 R90
WINDOW 0 0 56 VBottom 2
WINDOW 3 32 56 VTop 2
SYMATTR InstName R4
SYMATTR Value 22k
SYMBOL res 752 144 R90
WINDOW 0 0 56 VBottom 2
WINDOW 3 32 56 VTop 2
SYMATTR InstName R5
SYMATTR Value 50k
SYMBOL res 880 144 R90
WINDOW 0 0 56 VBottom 2
WINDOW 3 32 56 VTop 2
SYMATTR InstName R6
SYMATTR Value 50k
SYMBOL res 576 480 R90
WINDOW 0 0 56 VBottom 2
WINDOW 3 32 56 VTop 2
SYMATTR InstName R7
SYMATTR Value 10k
SYMBOL res 752 480 R90
WINDOW 0 0 56 VBottom 2
WINDOW 3 32 56 VTop 2
SYMATTR InstName R8
SYMATTR Value 50k
SYMBOL res 880 480 R90
WINDOW 0 0 56 VBottom 2
WINDOW 3 32 56 VTop 2
SYMATTR InstName R9
SYMATTR Value 50k
SYMBOL res 768 320 R180
WINDOW 0 36 76 Left 2
WINDOW 3 36 40 Left 2
SYMATTR InstName R10
SYMATTR Value 22k
SYMBOL cap 736 352 R0
SYMATTR InstName C2
SYMATTR Value 560p
SYMBOL cap 736 48 R90
WINDOW 0 0 32 VBottom 2
WINDOW 3 32 32 VTop 2
SYMATTR InstName C3
SYMATTR Value 47n
SYMBOL res 1024 144 R90
WINDOW 0 0 56 VBottom 2
WINDOW 3 32 56 VTop 2
SYMATTR InstName R11
SYMATTR Value 22k
SYMBOL res 1024 480 R90
WINDOW 0 0 56 VBottom 2
WINDOW 3 32 56 VTop 2
SYMATTR InstName R12
SYMATTR Value 10k
SYMBOL res -432 512 R0
SYMATTR InstName R13
SYMATTR Value 100K
SYMBOL res -432 640 R0
SYMATTR InstName R14
SYMATTR Value 100K
SYMBOL res -432 -240 R90
WINDOW 0 0 56 VBottom 2
WINDOW 3 32 56 VTop 2
SYMATTR InstName R2
SYMATTR Value 0.1
SYMBOL res 208 -144 R0
SYMATTR InstName R15
SYMATTR Value 0.1
SYMBOL res 1200 -48 R0
SYMATTR InstName R16
SYMATTR Value 0.1
SYMBOL res 112 -736 R0
SYMATTR InstName R17
SYMATTR Value 20k
SYMBOL res 112 -528 R0
SYMATTR InstName R19
SYMATTR Value 7k5
SYMBOL diode 592 -784 R270
WINDOW 0 32 32 VTop 2
WINDOW 3 0 32 VBottom 2
SYMATTR InstName D1
SYMATTR Value 1N4148
SYMBOL diode 592 -576 R270
WINDOW 0 32 32 VTop 2
WINDOW 3 0 32 VBottom 2
SYMATTR InstName D2
SYMATTR Value 1N4148
SYMBOL cap 720 -544 R0
SYMATTR InstName C4
SYMATTR Value 1µ
SYMBOL voltage -144 -784 R0
WINDOW 123 0 0 Left 2
WINDOW 39 0 0 Left 2
SYMATTR InstName V3
SYMATTR Value 5
SYMBOL res 256 -416 R0
SYMATTR InstName R18
SYMATTR Value 120k
SYMBOL res 416 -464 R90
WINDOW 0 0 56 VBottom 2
WINDOW 3 32 56 VTop 2
SYMATTR InstName R21
SYMATTR Value 300k
SYMBOL cap 464 144 R90
WINDOW 0 0 32 VBottom 2
WINDOW 3 32 32 VTop 2
SYMATTR InstName C5
SYMATTR Value 1µ
SYMBOL res 416 144 R90
WINDOW 0 0 56 VBottom 2
WINDOW 3 32 56 VTop 2
SYMATTR InstName R22
SYMATTR Value 100
SYMBOL LED 976 -864 R0
SYMATTR InstName D3
SYMBOL res 976 -992 R0
SYMATTR InstName R29
SYMATTR Value 4k
SYMBOL npn 928 -752 R0
SYMATTR InstName Q1
SYMBOL res 864 -720 R90
WINDOW 0 0 56 VBottom 2
WINDOW 3 32 56 VTop 2
SYMATTR InstName R20
SYMATTR Value 10k
SYMBOL res 896 -544 R180
WINDOW 0 36 76 Left 2
WINDOW 3 36 40 Left 2
SYMATTR InstName R23
SYMATTR Value 100k
SYMBOL bv -288 224 R0
SYMATTR InstName B1
SYMATTR Value V=white(1e2*time)*2
SYMBOL res 96 320 R0
SYMATTR InstName R24
SYMATTR Value 10k
SYMBOL res 208 48 R90
WINDOW 0 0 56 VBottom 2
WINDOW 3 32 56 VTop 2
SYMATTR InstName R25
SYMATTR Value 10k
SYMBOL Opamps\\LT6012 304 -848 R0
SYMATTR InstName U6
SYMBOL Opamps\\LT6012 304 -592 R0
SYMATTR InstName U7
SYMBOL Opamps\\LT6012 1216 352 R0
SYMATTR InstName U8
SYMBOL Opamps\\LT6012 -192 592 R0
SYMATTR InstName U9
TEXT -272 16 Left 2 !.tran 0.5
TEXT -264 64 Left 2 !;ac oct 100 1 100000
